data/models/EPRI_Ckt5-G/Master.DSS
Clear
New Circuit.ckt5


Redirect Vsource.dss
Redirect WireData.DSS
Redirect LineGeometry.DSS
Redirect LineCode.DSS
Redirect LoadShape.DSS
Redirect GrowthShape.DSS
Redirect TCC_Curve.DSS
Redirect Spectrum.DSS
Redirect sub\Branches.dss
Redirect sub\Transformers.dss
Redirect sub\Loads.dss
Redirect sub\Capacitors.dss
Redirect Transformer.DSS
Redirect Reactor.DSS
Redirect EnergyMeter.DSS
MakeBusList
Redirect BusVoltageBases.dss  ! set voltage bases
Buscoords buscoords.dss
