data/models/EPRI_Ckt5-G/sub/Capacitors.dss
New "Capacitor.mdv201_da_8_153_abc74433-1" bus1=74433 kv=13.198602 kvar=[ 600] conn=wye
New "CapControl.mdv201_da_8_153_abc74433-1" capacitor=MDV201_DA_8_153_ABC74433-1 element=Line.MDV201_DA_8_154_ABC74439 terminal=1
New "Capacitor.mdv201_hn_2_345_abc8081-1" bus1=8081 kv=13.198602 kvar=[ 450] conn=wye
New "CapControl.mdv201_hn_2_345_abc8081-1" capacitor=MDV201_HN_2_345_ABC8081-1 element=Line.MDV201_HN_2_131_ABC8080 terminal=1
New "Capacitor.mdv201_hn_2_116_abc28285-1" bus1=28285 kv=13.198602 kvar=[ 600] conn=wye
New "CapControl.mdv201_hn_2_116_abc28285-1" capacitor=MDV201_HN_2_116_ABC28285-1 element=Line.MDV201_HN_2_117_ABC28284 terminal=1
New "Capacitor.mdv201_hn_2_818_abc63707-1" bus1=63707 kv=13.198602 kvar=[ 300] conn=wye
New "CapControl.mdv201_hn_2_818_abc63707-1" capacitor=MDV201_HN_2_818_ABC63707-1 element=Line.MDV201_HN_2_819_ABC8177 terminal=1
