data/models/EPRI_Ckt5-G/ckt5_VLN_Node.Txt

LINE-GROUND and LINE-LINE VOLTAGES BY BUS & NODE

Bus                            Node    VLN (kV)   Angle      pu     Base kV    Node-Node   VLL (kV)  Angle      pu

SOURCEBUS .................... 1       69.715 /_    0.0      1.05   115.000        1-2     120.75 /_   30.0      1.05
   -                           2       69.715 /_ -120.0      1.05   115.000        2-3     120.75 /_  -90.0      1.05
   -                           3       69.715 /_  120.0      1.05   115.000        3-1     120.75 /_  150.0      1.05
_MDV_SUB_1_LSB ............... 1       7.3186 /_  -33.4    1.0165    12.470        1-2     12.682 /_   -3.6     1.017
   -                           2       7.3059 /_ -153.7    1.0148    12.470        2-3     12.645 /_ -123.5     1.014
   -                           3       7.3191 /_   86.7    1.0166    12.470        3-1      12.68 /_  116.6    1.0169
MDV201 ....................... 1       7.3186 /_  -33.4    1.0165    12.470        1-2     12.682 /_   -3.6     1.017
   -                           2       7.3059 /_ -153.7    1.0148    12.470        2-3     12.645 /_ -123.5     1.014
   -                           3       7.3191 /_   86.7    1.0166    12.470        3-1      12.68 /_  116.6    1.0169
MDV201_HN_2_793_ABC1023346_INT 1       7.3181 /_  -33.4    1.0165    12.470        1-2     12.681 /_   -3.6     1.017
   -                           2       7.3054 /_ -153.7    1.0147    12.470        2-3     12.644 /_ -123.5    1.0139
   -                           3       7.3187 /_   86.7    1.0165    12.470        3-1      12.68 /_  116.6    1.0168
1023346 ...................... 1        7.313 /_  -33.4    1.0158    12.470        1-2     12.674 /_   -3.6    1.0163
   -                           2       7.3008 /_ -153.7    1.0141    12.470        2-3     12.637 /_ -123.5    1.0134
   -                           3       7.3155 /_   86.6    1.0161    12.470        3-1     12.672 /_  116.6    1.0162
MDV201_796USD_INT ............ 1       7.3126 /_  -33.4    1.0157    12.470        1-2     12.673 /_   -3.6    1.0163
   -                           2       7.3003 /_ -153.7     1.014    12.470        2-3     12.636 /_ -123.5    1.0133
   -                           3       7.3151 /_   86.6     1.016    12.470        3-1     12.671 /_  116.6    1.0161
796 .......................... 1       7.3124 /_  -33.4    1.0157    12.470        1-2     12.673 /_   -3.6    1.0162
   -                           2       7.3002 /_ -153.7     1.014    12.470        2-3     12.636 /_ -123.5    1.0133
   -                           3        7.315 /_   86.6     1.016    12.470        3-1     12.671 /_  116.6    1.0161
MDV202_OSW_796_INT ........... 1       7.3124 /_  -33.4    1.0157    12.470        1-2     12.673 /_   -3.6    1.0162
   -                           2       7.3002 /_ -153.7     1.014    12.470        2-3     12.636 /_ -123.5    1.0133
   -                           3        7.315 /_   86.6     1.016    12.470        3-1     12.671 /_  116.6    1.0161
791 .......................... 1       7.3058 /_  -33.5    1.0148    12.470        1-2     12.662 /_   -3.6    1.0154
   -                           2       7.2941 /_ -153.8    1.0131    12.470        2-3     12.627 /_ -123.6    1.0126
   -                           3       7.3109 /_   86.6    1.0155    12.470        3-1     12.661 /_  116.5    1.0153
788 .......................... 1       7.2983 /_  -33.5    1.0137    12.470        1-2     12.651 /_   -3.7    1.0145
   -                           2       7.2874 /_ -153.8    1.0122    12.470        2-3     12.617 /_ -123.6    1.0118
   -                           3       7.3064 /_   86.5    1.0148    12.470        3-1      12.65 /_  116.5    1.0144
782 .......................... 1       7.2906 /_  -33.6    1.0126    12.470        1-2     12.639 /_   -3.8    1.0136
   -                           2         7.28 /_ -153.9    1.0112    12.470        2-3     12.607 /_ -123.7     1.011
   -                           3       7.3023 /_   86.4    1.0143    12.470        3-1     12.638 /_  116.4    1.0135
783 .......................... 1       7.2841 /_  -33.6    1.0117    12.470        1-2     12.629 /_   -3.8    1.0128
   -                           2       7.2738 /_ -154.0    1.0103    12.470        2-3     12.599 /_ -123.7    1.0103
   -                           3       7.2989 /_   86.4    1.0138    12.470        3-1     12.629 /_  116.3    1.0127
861 .......................... 1       7.2775 /_  -33.7    1.0108    12.470        1-2      12.62 /_   -3.9     1.012
   -                           2       7.2675 /_ -154.0    1.0094    12.470        2-3      12.59 /_ -123.8    1.0096
   -                           3       7.2955 /_   86.3    1.0133    12.470        3-1     12.619 /_  116.3     1.012
63685 ........................ 1       7.2691 /_  -33.7    1.0097    12.470        1-2     12.607 /_   -3.9     1.011
   -                           2       7.2596 /_ -154.1    1.0083    12.470        2-3     12.579 /_ -123.9    1.0088
   -                           3       7.2911 /_   86.2    1.0127    12.470        3-1     12.607 /_  116.2     1.011
63638 ........................ 1       7.2587 /_  -33.8    1.0082    12.470        1-2     12.591 /_   -4.0    1.0097
   -                           2       7.2502 /_ -154.2     1.007    12.470        2-3     12.565 /_ -123.9    1.0077
   -                           3       7.2848 /_   86.1    1.0118    12.470        3-1     12.591 /_  116.1    1.0097
63639 ........................ 1       7.2545 /_  -33.8    1.0076    12.470        1-2     12.584 /_   -4.1    1.0091
   -                           2       7.2456 /_ -154.2    1.0064    12.470        2-3     12.559 /_ -124.0    1.0071
   -                           3        7.282 /_   86.1    1.0115    12.470        3-1     12.584 /_  116.1    1.0092
X_63639 ...................... 2      0.23996 /_ -154.5    1.0015     0.415
X_63639_1 .................... 2      0.23913 /_ -154.5   0.99806     0.415
63643 ........................ 1       7.2485 /_  -33.9    1.0068    12.470        1-2     12.574 /_   -4.1    1.0084
   -                           2       7.2391 /_ -154.3    1.0055    12.470        2-3      12.55 /_ -124.0    1.0064
   -                           3        7.278 /_   86.0    1.0109    12.470        3-1     12.574 /_  116.0    1.0084
X_63643 ...................... 2      0.23984 /_ -154.5     1.001     0.415
X_63643_2 .................... 2      0.23946 /_ -154.5   0.99941     0.415
X_63643_1 .................... 2      0.23946 /_ -154.5   0.99941     0.415
63645 ........................ 1       7.2425 /_  -33.9     1.006    12.470        1-2     12.564 /_   -4.2    1.0076
   -                           2       7.2326 /_ -154.4    1.0046    12.470        2-3     12.541 /_ -124.1    1.0057
   -                           3       7.2739 /_   86.0    1.0103    12.470        3-1     12.564 /_  116.0    1.0076
X_63645 ...................... 2      0.23898 /_ -154.7   0.99739     0.415
X_63645_2 .................... 2      0.23842 /_ -154.7   0.99505     0.415
X_63645_1 .................... 2      0.23842 /_ -154.7   0.99505     0.415
63655 ........................ 1       7.2364 /_  -34.0    1.0051    12.470        1-2     12.554 /_   -4.2    1.0068
   -                           2       7.2261 /_ -154.4    1.0037    12.470        2-3     12.532 /_ -124.2     1.005
   -                           3       7.2699 /_   85.9    1.0098    12.470        3-1     12.555 /_  115.9    1.0068
X_63655 ...................... 2      0.23874 /_ -154.7   0.99639     0.415
X_63655_2 .................... 2      0.23817 /_ -154.7   0.99402     0.415
X_63655_1 .................... 2      0.23817 /_ -154.7   0.99402     0.415
63657 ........................ 1       7.2295 /_  -34.0    1.0042    12.470        1-2     12.543 /_   -4.3    1.0059
   -                           2       7.2184 /_ -154.5    1.0026    12.470        2-3     12.522 /_ -124.2    1.0042
   -                           3       7.2658 /_   85.8    1.0092    12.470        3-1     12.543 /_  115.8    1.0059
X_63657 ...................... 2      0.24021 /_ -154.6    1.0025     0.415
X_63657_1 .................... 2      0.23988 /_ -154.6    1.0012     0.415
63656 ........................ 1       7.2278 /_  -34.0    1.0039    12.470        1-2      12.54 /_   -4.3    1.0056
   -                           2        7.217 /_ -154.5    1.0024    12.470        2-3     12.519 /_ -124.2     1.004
   -                           3       7.2623 /_   85.8    1.0087    12.470        3-1     12.538 /_  115.8    1.0055
MDV201_107107USD_INT ......... 1       7.2276 /_  -34.0    1.0039    12.470        1-2      12.54 /_   -4.3    1.0056
   -                           2       7.2169 /_ -154.5    1.0024    12.470        2-3     12.519 /_ -124.2    1.0039
   -                           3       7.2621 /_   85.8    1.0087    12.470        3-1     12.538 /_  115.8    1.0055
107107 ....................... 1       7.2276 /_  -34.0    1.0039    12.470        1-2      12.54 /_   -4.3    1.0056
   -                           2       7.2169 /_ -154.5    1.0024    12.470        2-3     12.519 /_ -124.2    1.0039
   -                           3       7.2621 /_   85.8    1.0087    12.470        3-1     12.538 /_  115.8    1.0055
63654 ........................ 1        7.224 /_  -34.1    1.0034    12.470        1-2     12.532 /_   -4.3     1.005
   -                           2       7.2143 /_ -154.5    1.0021    12.470        2-3     12.513 /_ -124.3    1.0034
   -                           3       7.2544 /_   85.8    1.0076    12.470        3-1     12.528 /_  115.8    1.0046
14891 ........................ 1       7.2202 /_  -34.1    1.0029    12.470        1-2     12.524 /_   -4.3    1.0043
   -                           2       7.2116 /_ -154.5    1.0017    12.470        2-3     12.506 /_ -124.3    1.0029
   -                           3       7.2463 /_   85.7    1.0065    12.470        3-1     12.517 /_  115.8    1.0038
14892 ........................ 1       7.2169 /_  -34.1    1.0024    12.470        1-2     12.517 /_   -4.3    1.0038
   -                           2       7.2093 /_ -154.5    1.0014    12.470        2-3       12.5 /_ -124.3    1.0024
   -                           3       7.2393 /_   85.7    1.0055    12.470        3-1     12.508 /_  115.7     1.003
28247 ........................ 1       7.2137 /_  -34.1     1.002    12.470        1-2     12.511 /_   -4.3    1.0033
   -                           2        7.207 /_ -154.5     1.001    12.470        2-3     12.495 /_ -124.4     1.002
   -                           3       7.2324 /_   85.7    1.0046    12.470        3-1     12.499 /_  115.7    1.0023
28244 ........................ 1        7.212 /_  -34.2    1.0017    12.470        1-2     12.507 /_   -4.3     1.003
   -                           2       7.2056 /_ -154.5    1.0008    12.470        2-3     12.492 /_ -124.4    1.0017
   -                           3       7.2289 /_   85.6    1.0041    12.470        3-1     12.494 /_  115.7    1.0019
14857 ........................ 1       7.2109 /_  -34.2    1.0016    12.470        1-2     12.505 /_   -4.4    1.0028
   -                           2       7.2047 /_ -154.5    1.0007    12.470        2-3      12.49 /_ -124.4    1.0016
   -                           3       7.2266 /_   85.6    1.0038    12.470        3-1     12.491 /_  115.7    1.0017
X_14857 ...................... 2      0.23935 /_ -154.6   0.99896     0.415
X_14857_2 .................... 2      0.23914 /_ -154.6   0.99808     0.415
X_14857_1 .................... 2      0.23914 /_ -154.6   0.99808     0.415
14858 ........................ 1       7.2105 /_  -34.2    1.0015    12.470
14869 ........................ 1       7.2105 /_  -34.2    1.0015    12.470
14870 ........................ 1       7.2088 /_  -34.2    1.0013    12.470
X_14870 ...................... 1       0.2365 /_  -34.7   0.98707     0.415
X_14870_4 .................... 1        0.236 /_  -34.7   0.98499     0.415
X_14870_3 .................... 1        0.236 /_  -34.7   0.98499     0.415
X_14870_2 .................... 1        0.236 /_  -34.7   0.98499     0.415
X_14870_1 .................... 1        0.236 /_  -34.7   0.98499     0.415
63726 ........................ 1       7.2077 /_  -34.2    1.0011    12.470
63718 ........................ 1       7.2066 /_  -34.2     1.001    12.470
X_63718 ...................... 1      0.23575 /_  -34.8   0.98394     0.415
X_63718_4 .................... 1      0.23516 /_  -34.8   0.98149     0.415
X_63718_3 .................... 1      0.23516 /_  -34.8   0.98149     0.415
X_63718_2 .................... 1      0.23516 /_  -34.8   0.98149     0.415
X_63718_1 .................... 1      0.23516 /_  -34.8   0.98149     0.415
63715 ........................ 1       7.2058 /_  -34.2    1.0009    12.470
X_63715 ...................... 1      0.23698 /_  -34.6   0.98905     0.415
X_63715_3 .................... 1      0.23641 /_  -34.6    0.9867     0.415
X_63715_2 .................... 1      0.23641 /_  -34.6    0.9867     0.415
X_63715_1 .................... 1      0.23641 /_  -34.6    0.9867     0.415
63713 ........................ 1       7.2053 /_  -34.2    1.0008    12.470
X_63713 ...................... 1      0.23744 /_  -34.6     0.991     0.415
X_63713_4 .................... 1      0.23688 /_  -34.6   0.98867     0.415
X_63713_3 .................... 1      0.23688 /_  -34.6   0.98867     0.415
X_63713_2 .................... 1      0.23688 /_  -34.6   0.98867     0.415
X_63713_1 .................... 1      0.23688 /_  -34.6   0.98867     0.415
63709 ........................ 1       7.2049 /_  -34.2    1.0007    12.470
X_63709 ...................... 1      0.23714 /_  -34.6   0.98971     0.415
X_63709_2 .................... 1      0.23634 /_  -34.6    0.9864     0.415
X_63709_1 .................... 1      0.23634 /_  -34.6    0.9864     0.415
63710 ........................ 1       7.2047 /_  -34.2    1.0007    12.470
X_63710 ...................... 1      0.23725 /_  -34.6   0.99019     0.415
X_63710_4 .................... 1      0.23665 /_  -34.6    0.9877     0.415
X_63710_3 .................... 1      0.23665 /_  -34.6    0.9877     0.415
X_63710_2 .................... 1      0.23665 /_  -34.6    0.9877     0.415
X_63710_1 .................... 1      0.23665 /_  -34.6    0.9877     0.415
51012 ........................ 1       7.2096 /_  -34.2    1.0014    12.470        1-2     12.501 /_   -4.4    1.0025
   -                           2       7.2032 /_ -154.5    1.0005    12.470        2-3     12.487 /_ -124.4    1.0013
   -                           3       7.2227 /_   85.6    1.0032    12.470        3-1     12.486 /_  115.7    1.0013
X_51012 ...................... 2      0.23784 /_ -154.8   0.99266     0.415
X_51012_1 .................... 2      0.23663 /_ -154.8   0.98762     0.415
63714 ........................ 1       7.2077 /_  -34.2    1.0011    12.470        1-2     12.496 /_   -4.4    1.0021
   -                           2        7.201 /_ -154.5    1.0002    12.470        2-3     12.482 /_ -124.4    1.0009
   -                           3       7.2167 /_   85.6    1.0024    12.470        3-1     12.478 /_  115.7    1.0007
X_63714 ...................... 2      0.23833 /_ -154.7    0.9947     0.415
X_63714_2 .................... 2      0.23808 /_ -154.7   0.99364     0.415
X_63714_1 .................... 2      0.23808 /_ -154.7   0.99364     0.415
63711 ........................ 1       7.2051 /_  -34.2    1.0008    12.470        1-2     12.489 /_   -4.4    1.0016
   -                           2       7.1981 /_ -154.5   0.99979    12.470        2-3     12.475 /_ -124.5    1.0004
   -                           3       7.2086 /_   85.5    1.0013    12.470        3-1     12.468 /_  115.6   0.99984
X_63711 ...................... 2      0.23825 /_ -154.7   0.99437     0.415
X_63711_2 .................... 2      0.23781 /_ -154.7   0.99251     0.415
X_63711_1 .................... 2      0.23781 /_ -154.7   0.99251     0.415
44582 ........................ 1        7.204 /_  -34.3    1.0006    12.470        1-2     12.487 /_   -4.4    1.0013
   -                           2       7.1969 /_ -154.5   0.99963    12.470        2-3     12.473 /_ -124.5    1.0002
   -                           3       7.2053 /_   85.5    1.0008    12.470        3-1     12.464 /_  115.6    0.9995
X_44582 ...................... 2      0.23861 /_ -154.7   0.99586     0.415
X_44582_2 .................... 2      0.23807 /_ -154.7   0.99363     0.415
X_44582_1 .................... 2      0.23807 /_ -154.7   0.99363     0.415
8160 ......................... 1       7.2034 /_  -34.3    1.0005    12.470        1-2     12.485 /_   -4.4    1.0012
   -                           2       7.1962 /_ -154.5   0.99953    12.470        2-3     12.471 /_ -124.5    1.0001
   -                           3       7.2033 /_   85.5    1.0005    12.470        3-1     12.461 /_  115.6    0.9993
104356 ....................... 3       7.2033 /_   85.5    1.0005    12.470
44581 ........................ 3       7.2026 /_   85.5    1.0004    12.470
X_44581 ...................... 3      0.23737 /_   85.1    0.9907     0.415
X_44581_3 .................... 3      0.23689 /_   85.1    0.9887     0.415
X_44581_2 .................... 3      0.23689 /_   85.1    0.9887     0.415
X_44581_1 .................... 3      0.23689 /_   85.1    0.9887     0.415
63712 ........................ 3       7.2021 /_   85.5    1.0004    12.470
63716 ........................ 3       7.2019 /_   85.5    1.0003    12.470
1012641 ...................... 3       7.2019 /_   85.5    1.0003    12.470
1012643 ...................... 3       7.2019 /_   85.5    1.0003    12.470
1160453 ...................... 3       7.2018 /_   85.5    1.0003    12.470
MDV201_1012644ELB_INT ........ 3       7.2018 /_   85.5    1.0003    12.470
1012644 ...................... 3       7.2018 /_   85.5    1.0003    12.470
X_1012644 .................... 3      0.23914 /_   85.4   0.99807     0.415
X_1012644_1 .................. 3      0.23865 /_   85.4   0.99605     0.415
63717 ........................ 3       7.2018 /_   85.5    1.0003    12.470
X_63717 ...................... 3      0.23869 /_   85.3   0.99621     0.415
X_63717_1 .................... 3      0.23798 /_   85.3   0.99322     0.415
63719 ........................ 3       7.2017 /_   85.5    1.0003    12.470
X_63719 ...................... 3      0.23772 /_   85.1   0.99216     0.415
X_63719_5 .................... 3      0.23733 /_   85.1   0.99054     0.415
X_63719_4 .................... 3      0.23733 /_   85.1   0.99054     0.415
X_63719_3 .................... 3      0.23733 /_   85.1   0.99054     0.415
X_63719_2 .................... 3      0.23733 /_   85.1   0.99054     0.415
X_63719_1 .................... 3      0.23733 /_   85.1   0.99054     0.415
44583 ........................ 1       7.2025 /_  -34.3    1.0004    12.470        1-2     12.483 /_   -4.4     1.001
   -                           2       7.1955 /_ -154.5   0.99943    12.470        2-3     12.469 /_ -124.5   0.99994
   -                           3       7.2009 /_   85.5    1.0002    12.470        3-1     12.458 /_  115.6   0.99905
X_44583 ...................... 3      0.23841 /_   85.2   0.99502     0.415
X_44583_2 .................... 3      0.23798 /_   85.3   0.99324     0.415
X_44583_1 .................... 3      0.23798 /_   85.3   0.99324     0.415
44584 ........................ 1       7.2018 /_  -34.3    1.0003    12.470        1-2     12.481 /_   -4.4    1.0009
   -                           2       7.1948 /_ -154.5   0.99934    12.470        2-3     12.468 /_ -124.5   0.99981
   -                           3       7.1986 /_   85.5   0.99987    12.470        3-1     12.455 /_  115.6   0.99883
X_44584 ...................... 3      0.23695 /_   85.0   0.98895     0.415
X_44584_3 .................... 3      0.23612 /_   85.0   0.98548     0.415
X_44584_2 .................... 3      0.23612 /_   85.0   0.98548     0.415
X_44584_1 .................... 3      0.23612 /_   85.0   0.98548     0.415
8163 ......................... 1       7.2002 /_  -34.3    1.0001    12.470        1-2     12.477 /_   -4.4    1.0006
   -                           2       7.1932 /_ -154.5   0.99912    12.470        2-3     12.464 /_ -124.5   0.99954
   -                           3       7.1944 /_   85.4   0.99929    12.470        3-1      12.45 /_  115.6   0.99838
X_8163 ....................... 3      0.23771 /_   85.1   0.99212     0.415
X_8163_3 ..................... 3      0.23713 /_   85.1   0.98969     0.415
X_8163_2 ..................... 3      0.23713 /_   85.1   0.98969     0.415
X_8163_1 ..................... 3      0.23713 /_   85.1   0.98969     0.415
8164 ......................... 1       7.1979 /_  -34.3   0.99976    12.470        1-2     12.472 /_   -4.4    1.0001
   -                           2       7.1914 /_ -154.5   0.99886    12.470        2-3      12.46 /_ -124.5   0.99917
   -                           3       7.1885 /_   85.4   0.99847    12.470        3-1     12.442 /_  115.6   0.99778
X_8164 ....................... 3      0.23621 /_   84.9   0.98585     0.415
X_8164_4 ..................... 3       0.2355 /_   84.9   0.98289     0.415
X_8164_3 ..................... 3       0.2355 /_   84.9   0.98289     0.415
X_8164_2 ..................... 3       0.2355 /_   84.9   0.98289     0.415
X_8164_1 ..................... 3       0.2355 /_   84.9   0.98289     0.415
8165 ......................... 1       7.1971 /_  -34.3   0.99966    12.470        1-2      12.47 /_   -4.4         1
   -                           2       7.1908 /_ -154.5   0.99879    12.470        2-3     12.458 /_ -124.5   0.99907
   -                           3       7.1869 /_   85.4   0.99824    12.470        3-1      12.44 /_  115.6    0.9976
X_8165 ....................... 3      0.23815 /_   85.2   0.99395     0.415
X_8165_2 ..................... 3      0.23757 /_   85.2   0.99152     0.415
X_8165_1 ..................... 3      0.23757 /_   85.2   0.99152     0.415
8167 ......................... 1       7.1953 /_  -34.3   0.99941    12.470        1-2     12.466 /_   -4.4    0.9997
   -                           2       7.1895 /_ -154.5    0.9986    12.470        2-3     12.455 /_ -124.6    0.9988
   -                           3       7.1827 /_   85.4   0.99765    12.470        3-1     12.435 /_  115.5   0.99716
X_8167 ....................... 2      0.23565 /_ -155.1   0.98351     0.415
X_8167_5 ..................... 2      0.23498 /_ -155.1    0.9807     0.415
X_8167_4 ..................... 2      0.23498 /_ -155.1    0.9807     0.415
X_8167_3 ..................... 2      0.23498 /_ -155.1    0.9807     0.415
X_8167_2 ..................... 2      0.23498 /_ -155.1    0.9807     0.415
X_8167_1 ..................... 2      0.23498 /_ -155.1    0.9807     0.415
44585 ........................ 1       7.1944 /_  -34.4   0.99928    12.470        1-2     12.464 /_   -4.4   0.99953
   -                           2       7.1889 /_ -154.5   0.99851    12.470        2-3     12.453 /_ -124.6   0.99866
   -                           3       7.1804 /_   85.4   0.99734    12.470        3-1     12.432 /_  115.5   0.99693
38388 ........................ 1       7.1934 /_  -34.4   0.99914    12.470        1-2     12.462 /_   -4.4   0.99936
   -                           2       7.1882 /_ -154.5   0.99843    12.470        2-3     12.452 /_ -124.6   0.99852
   -                           3       7.1781 /_   85.4   0.99702    12.470        3-1     12.429 /_  115.5    0.9967
X_38388 ...................... 2      0.23567 /_ -155.1   0.98358     0.415
X_38388_3 .................... 2      0.23496 /_ -155.1   0.98064     0.415
X_38388_2 .................... 2      0.23496 /_ -155.1   0.98064     0.415
X_38388_1 .................... 2      0.23496 /_ -155.1   0.98064     0.415
44586 ........................ 1       7.1917 /_  -34.4   0.99891    12.470        1-2     12.458 /_   -4.4   0.99907
   -                           2       7.1872 /_ -154.5   0.99829    12.470        2-3     12.449 /_ -124.6   0.99828
   -                           3       7.1739 /_   85.3   0.99644    12.470        3-1     12.424 /_  115.5   0.99628
X_44586 ...................... 2      0.23833 /_ -154.7   0.99469     0.415
X_44586_1 .................... 2      0.23767 /_ -154.7   0.99193     0.415
62231 ........................ 3       7.1729 /_   85.3    0.9963    12.470
106883 ....................... 3       7.1729 /_   85.3   0.99629    12.470
62236 ........................ 3       7.1696 /_   85.3   0.99584    12.470
X_62236 ...................... 3      0.23543 /_   84.8    0.9826     0.415
X_62236_3 .................... 3       0.2348 /_   84.8   0.97996     0.415
X_62236_2 .................... 3       0.2348 /_   84.8   0.97996     0.415
X_62236_1 .................... 3       0.2348 /_   84.8   0.97996     0.415
62237 ........................ 3       7.1664 /_   85.3    0.9954    12.470
62246 ........................ 3       7.1662 /_   85.3   0.99537    12.470
X_62246 ...................... 3      0.23634 /_   84.9   0.98641     0.415
X_62246_2 .................... 3      0.23567 /_   84.9   0.98361     0.415
X_62246_1 .................... 3      0.23567 /_   84.9   0.98361     0.415
62248 ........................ 3       7.1661 /_   85.3   0.99536    12.470
X_62248 ...................... 3      0.23506 /_   84.7   0.98103     0.415
X_62248_2 .................... 3      0.23404 /_   84.7   0.97679     0.415
X_62248_1 .................... 3      0.23404 /_   84.7   0.97679     0.415
1148537 ...................... 3       7.1663 /_   85.3   0.99539    12.470
X_1148537 .................... 3      0.23699 /_   85.0    0.9891     0.415
X_1148537_1 .................. 3      0.23599 /_   85.0   0.98493     0.415
1149722 ...................... 3       7.1663 /_   85.3   0.99539    12.470
1163437 ...................... 3       7.1663 /_   85.3   0.99539    12.470
MDV201_1163438ELB_INT ........ 3       7.1663 /_   85.3   0.99539    12.470
1163438 ...................... 3       7.1663 /_   85.3   0.99539    12.470
MDV201_1163441ELB_INT ........ 3       7.1663 /_   85.3   0.99539    12.470
1163441 ...................... 3       7.1663 /_   85.3   0.99539    12.470
1163442 ...................... 3       7.1663 /_   85.3   0.99539    12.470
MDV201_1163443ELB_INT ........ 3       7.1663 /_   85.3   0.99539    12.470
1163443 ...................... 3       7.1663 /_   85.3   0.99539    12.470
62247 ........................ 3       7.1644 /_   85.3   0.99512    12.470
X_62247 ...................... 3      0.23715 /_   85.1   0.98979     0.415
X_62247_1 .................... 3      0.23628 /_   85.1   0.98612     0.415
62252 ........................ 3       7.1615 /_   85.3   0.99472    12.470
62311 ........................ 3       7.1612 /_   85.3   0.99468    12.470
X_62311 ...................... 3      0.23316 /_   84.4   0.97314     0.415
X_62311_4 .................... 3      0.23242 /_   84.4   0.97004     0.415
X_62311_3 .................... 3      0.23242 /_   84.4   0.97004     0.415
X_62311_2 .................... 3      0.23242 /_   84.4   0.97004     0.415
X_62311_1 .................... 3      0.23242 /_   84.4   0.97004     0.415
62312 ........................ 3       7.1611 /_   85.3   0.99466    12.470
X_62312 ...................... 3      0.23698 /_   85.0   0.98907     0.415
X_62312_3 .................... 3      0.23632 /_   85.0    0.9863     0.415
X_62312_2 .................... 3      0.23632 /_   85.0    0.9863     0.415
X_62312_1 .................... 3      0.23632 /_   85.0    0.9863     0.415
89812 ........................ 3       7.1615 /_   85.3   0.99471    12.470
X_89812 ...................... 3      0.23603 /_   84.9    0.9851     0.415
X_89812_2 .................... 3      0.23532 /_   84.9   0.98213     0.415
X_89812_1 .................... 3      0.23532 /_   84.9   0.98213     0.415
44578 ........................ 3       7.1615 /_   85.3   0.99471    12.470
44579 ........................ 3       7.1615 /_   85.3   0.99471    12.470
X_44579 ...................... 3      0.23868 /_   85.3   0.99616     0.415
X_44579_1 .................... 3      0.23867 /_   85.3   0.99612     0.415
89789 ........................ 3         7.16 /_   85.3   0.99451    12.470
X_89789 ...................... 3      0.23792 /_   85.2   0.99299     0.415
X_89789_1 .................... 3      0.23753 /_   85.2   0.99137     0.415
89784 ........................ 3       7.1582 /_   85.3   0.99426    12.470
X_89784 ...................... 3      0.23592 /_   84.9   0.98465     0.415
X_89784_2 .................... 3      0.23521 /_   84.9   0.98167     0.415
X_89784_1 .................... 3      0.23521 /_   84.9   0.98167     0.415
89781 ........................ 3       7.1563 /_   85.3   0.99399    12.470
X_89781 ...................... 3      0.23488 /_   84.7    0.9803     0.415
X_89781_2 .................... 3       0.2339 /_   84.7   0.97623     0.415
X_89781_1 .................... 3       0.2339 /_   84.7   0.97623     0.415
62310 ........................ 3       7.1542 /_   85.3    0.9937    12.470
X_62310 ...................... 3      0.23495 /_   84.7   0.98061     0.415
X_62310_3 .................... 3      0.23433 /_   84.7     0.978     0.415
X_62310_2 .................... 3      0.23433 /_   84.7     0.978     0.415
X_62310_1 .................... 3      0.23433 /_   84.7     0.978     0.415
62306 ........................ 3       7.1535 /_   85.3    0.9936    12.470
X_62306 ...................... 3      0.23484 /_   84.7   0.98013     0.415
X_62306_4 .................... 3      0.23409 /_   84.7   0.97698     0.415
X_62306_3 .................... 3      0.23409 /_   84.7   0.97698     0.415
X_62306_2 .................... 3      0.23409 /_   84.7   0.97698     0.415
X_62306_1 .................... 3      0.23409 /_   84.7   0.97698     0.415
...